powerflow/Codes/PF_Formulation/resultados_csv/16/9bus_transformer_fields/barras.csv
caso,script,bus_id,vm_pu,va_rad,pd_pu,qd_pu,pg_pu,qg_pu,bus_type
9bus_transformer_fields.pwf,16,1,1.0749999999592506,0.0,0.0,0.0,1.4249139237024837,0.10878732877728024,3
9bus_transformer_fields.pwf,16,2,1.0749999999602722,-0.03195055922741124,0.0,0.0,0.9,-0.025954278064338684,2
9bus_transformer_fields.pwf,16,3,1.0749999999640747,-0.025267323981639007,0.0,0.0,0.85,-0.137354797866975,2
9bus_transformer_fields.pwf,16,4,1.0718935709849604,-0.07128840463471174,0.0,0.0,0.0,0.0,1
9bus_transformer_fields.pwf,16,5,1.0500785121218186,-0.13446293294105263,1.25,0.5,0.0,0.0,1
9bus_transformer_fields.pwf,16,6,1.0641654475499631,-0.11692357937503092,0.9,0.3,0.0,0.0,1
9bus_transformer_fields.pwf,16,7,1.0777799070917078,-0.08051906427679864,0.0,0.0,0.0,0.0,1
9bus_transformer_fields.pwf,16,8,1.0690931890948119,-0.11106000574651702,1.0,0.35,0.0,0.0,1
9bus_transformer_fields.pwf,16,9,1.0834786409268766,-0.06804529558186548,0.0,0.0,0.0,0.0,1
